
*** ChampSim Multicore Out-of-Order Simulator ***

Warmup Instructions: 50000000
Simulation Instructions: 200000000
Number of CPUs: 1
LLC sets: 2048
LLC ways: 16
Off-chip DRAM Size: 4096 MB Channels: 1 Width: 64-bit Data Rate: 3200 MT/s

CPU 0 runs /home/alff/Desktop/arq/ChampSim/dpc3_traces/401.bzip2-277B.champsimtrace.xz
CPU 0 L1D next line prefetcher
L2C Signature Path Prefetcher
Initialize DRRIP state
Assign rand_sets[0]: 454  LLC: 2048
rand_sets[0]: 454
Assign rand_sets[1]: 1662  LLC: 2048
rand_sets[1]: 1662
Assign rand_sets[2]: 1921  LLC: 2048
rand_sets[2]: 1921
Assign rand_sets[3]: 1131  LLC: 2048
rand_sets[3]: 1131
Assign rand_sets[4]: 331  LLC: 2048
rand_sets[4]: 331
Assign rand_sets[5]: 1531  LLC: 2048
rand_sets[5]: 1531
Assign rand_sets[6]: 482  LLC: 2048
rand_sets[6]: 482
Assign rand_sets[7]: 1275  LLC: 2048
rand_sets[7]: 1275
Assign rand_sets[8]: 1876  LLC: 2048
rand_sets[8]: 1876
Assign rand_sets[9]: 2038  LLC: 2048
rand_sets[9]: 2038
Assign rand_sets[10]: 701  LLC: 2048
rand_sets[10]: 701
Assign rand_sets[11]: 479  LLC: 2048
rand_sets[11]: 479
Assign rand_sets[12]: 892  LLC: 2048
rand_sets[12]: 892
Assign rand_sets[13]: 1820  LLC: 2048
rand_sets[13]: 1820
Assign rand_sets[14]: 1505  LLC: 2048
rand_sets[14]: 1505
Assign rand_sets[15]: 1159  LLC: 2048
rand_sets[15]: 1159
Assign rand_sets[16]: 513  LLC: 2048
rand_sets[16]: 513
Assign rand_sets[17]: 703  LLC: 2048
rand_sets[17]: 703
Assign rand_sets[18]: 561  LLC: 2048
rand_sets[18]: 561
Assign rand_sets[19]: 990  LLC: 2048
rand_sets[19]: 990
Assign rand_sets[20]: 342  LLC: 2048
rand_sets[20]: 342
Assign rand_sets[21]: 882  LLC: 2048
rand_sets[21]: 882
Assign rand_sets[22]: 15  LLC: 2048
rand_sets[22]: 15
Assign rand_sets[23]: 71  LLC: 2048
rand_sets[23]: 71
Assign rand_sets[24]: 1127  LLC: 2048
rand_sets[24]: 1127
Assign rand_sets[25]: 1382  LLC: 2048
rand_sets[25]: 1382
Assign rand_sets[26]: 647  LLC: 2048
rand_sets[26]: 647
Assign rand_sets[27]: 857  LLC: 2048
rand_sets[27]: 857
Assign rand_sets[28]: 1450  LLC: 2048
rand_sets[28]: 1450
Assign rand_sets[29]: 1160  LLC: 2048
rand_sets[29]: 1160
Assign rand_sets[30]: 1852  LLC: 2048
rand_sets[30]: 1852
Assign rand_sets[31]: 1881  LLC: 2048
rand_sets[31]: 1881
Assign rand_sets[32]: 1770  LLC: 2048
rand_sets[32]: 1770
Assign rand_sets[33]: 1622  LLC: 2048
rand_sets[33]: 1622
Assign rand_sets[34]: 275  LLC: 2048
rand_sets[34]: 275
Assign rand_sets[35]: 635  LLC: 2048
rand_sets[35]: 635
Assign rand_sets[36]: 466  LLC: 2048
rand_sets[36]: 466
Assign rand_sets[37]: 1413  LLC: 2048
rand_sets[37]: 1413
Assign rand_sets[38]: 417  LLC: 2048
rand_sets[38]: 417
Assign rand_sets[39]: 472  LLC: 2048
rand_sets[39]: 472
Assign rand_sets[40]: 1340  LLC: 2048
rand_sets[40]: 1340
Assign rand_sets[41]: 852  LLC: 2048
rand_sets[41]: 852
Assign rand_sets[42]: 1365  LLC: 2048
rand_sets[42]: 1365
Assign rand_sets[43]: 47  LLC: 2048
rand_sets[43]: 47
Assign rand_sets[44]: 823  LLC: 2048
rand_sets[44]: 823
Assign rand_sets[45]: 686  LLC: 2048
rand_sets[45]: 686
Assign rand_sets[46]: 1637  LLC: 2048
rand_sets[46]: 1637
Assign rand_sets[47]: 1115  LLC: 2048
rand_sets[47]: 1115
Assign rand_sets[48]: 986  LLC: 2048
rand_sets[48]: 986
Assign rand_sets[49]: 258  LLC: 2048
rand_sets[49]: 258
Assign rand_sets[50]: 633  LLC: 2048
rand_sets[50]: 633
Assign rand_sets[51]: 920  LLC: 2048
rand_sets[51]: 920
Assign rand_sets[52]: 204  LLC: 2048
rand_sets[52]: 204
Assign rand_sets[53]: 227  LLC: 2048
rand_sets[53]: 227
Assign rand_sets[54]: 1818  LLC: 2048
rand_sets[54]: 1818
Assign rand_sets[55]: 886  LLC: 2048
rand_sets[55]: 886
Assign rand_sets[56]: 1422  LLC: 2048
rand_sets[56]: 1422
Assign rand_sets[57]: 607  LLC: 2048
rand_sets[57]: 607
Assign rand_sets[58]: 217  LLC: 2048
rand_sets[58]: 217
Assign rand_sets[59]: 1945  LLC: 2048
rand_sets[59]: 1945
Assign rand_sets[60]: 143  LLC: 2048
rand_sets[60]: 143
Assign rand_sets[61]: 1311  LLC: 2048
rand_sets[61]: 1311
Assign rand_sets[62]: 319  LLC: 2048
rand_sets[62]: 319
Assign rand_sets[63]: 1846  LLC: 2048
rand_sets[63]: 1846
LLC Next Line Prefetcher
Heartbeat CPU 0 instructions: 10000002 cycles: 2802963 heartbeat IPC: 3.56765 cumulative IPC: 3.56765 (Simulation time: 0 hr 0 min 17 sec) 
Heartbeat CPU 0 instructions: 20000001 cycles: 5630458 heartbeat IPC: 3.5367 cumulative IPC: 3.55211 (Simulation time: 0 hr 0 min 36 sec) 
Heartbeat CPU 0 instructions: 30000003 cycles: 8894554 heartbeat IPC: 3.06364 cumulative IPC: 3.37285 (Simulation time: 0 hr 1 min 1 sec) 
Heartbeat CPU 0 instructions: 40000002 cycles: 12170242 heartbeat IPC: 3.05279 cumulative IPC: 3.28671 (Simulation time: 0 hr 1 min 27 sec) 
Heartbeat CPU 0 instructions: 50000002 cycles: 15432732 heartbeat IPC: 3.06514 cumulative IPC: 3.23987 (Simulation time: 0 hr 1 min 52 sec) 

Warmup complete CPU 0 instructions: 50000002 cycles: 15432732 (Simulation time: 0 hr 1 min 52 sec) 

Heartbeat CPU 0 instructions: 60000000 cycles: 24199218 heartbeat IPC: 1.14071 cumulative IPC: 1.14071 (Simulation time: 0 hr 2 min 10 sec) 
Heartbeat CPU 0 instructions: 70000001 cycles: 32615968 heartbeat IPC: 1.18811 cumulative IPC: 1.16393 (Simulation time: 0 hr 2 min 27 sec) 
Heartbeat CPU 0 instructions: 80000001 cycles: 39594131 heartbeat IPC: 1.43304 cumulative IPC: 1.24165 (Simulation time: 0 hr 2 min 45 sec) 
Heartbeat CPU 0 instructions: 90000000 cycles: 46135229 heartbeat IPC: 1.5288 cumulative IPC: 1.30283 (Simulation time: 0 hr 3 min 1 sec) 
Heartbeat CPU 0 instructions: 100000001 cycles: 54635705 heartbeat IPC: 1.1764 cumulative IPC: 1.27541 (Simulation time: 0 hr 3 min 19 sec) 
Heartbeat CPU 0 instructions: 110000000 cycles: 62311369 heartbeat IPC: 1.30282 cumulative IPC: 1.2799 (Simulation time: 0 hr 3 min 37 sec) 
Heartbeat CPU 0 instructions: 120000000 cycles: 70432397 heartbeat IPC: 1.23137 cumulative IPC: 1.27273 (Simulation time: 0 hr 3 min 55 sec) 
Heartbeat CPU 0 instructions: 130000002 cycles: 78633408 heartbeat IPC: 1.21936 cumulative IPC: 1.26581 (Simulation time: 0 hr 4 min 12 sec) 
Heartbeat CPU 0 instructions: 140000002 cycles: 86757299 heartbeat IPC: 1.23094 cumulative IPC: 1.26184 (Simulation time: 0 hr 4 min 29 sec) 
Heartbeat CPU 0 instructions: 150000003 cycles: 92612886 heartbeat IPC: 1.70777 cumulative IPC: 1.29567 (Simulation time: 0 hr 4 min 44 sec) 
Heartbeat CPU 0 instructions: 160000001 cycles: 99659770 heartbeat IPC: 1.41907 cumulative IPC: 1.30599 (Simulation time: 0 hr 5 min 2 sec) 
Heartbeat CPU 0 instructions: 170000000 cycles: 108159044 heartbeat IPC: 1.17657 cumulative IPC: 1.29413 (Simulation time: 0 hr 5 min 20 sec) 
Heartbeat CPU 0 instructions: 180000002 cycles: 115704518 heartbeat IPC: 1.3253 cumulative IPC: 1.29648 (Simulation time: 0 hr 5 min 38 sec) 
Heartbeat CPU 0 instructions: 190000002 cycles: 123642228 heartbeat IPC: 1.25981 cumulative IPC: 1.29379 (Simulation time: 0 hr 5 min 56 sec) 
Heartbeat CPU 0 instructions: 200000001 cycles: 132163605 heartbeat IPC: 1.17352 cumulative IPC: 1.28501 (Simulation time: 0 hr 6 min 14 sec) 
Heartbeat CPU 0 instructions: 210000000 cycles: 139639626 heartbeat IPC: 1.33761 cumulative IPC: 1.28817 (Simulation time: 0 hr 6 min 30 sec) 
Heartbeat CPU 0 instructions: 220000000 cycles: 145671512 heartbeat IPC: 1.65786 cumulative IPC: 1.30529 (Simulation time: 0 hr 6 min 46 sec) 
Heartbeat CPU 0 instructions: 230000000 cycles: 152848410 heartbeat IPC: 1.39336 cumulative IPC: 1.30989 (Simulation time: 0 hr 7 min 4 sec) 
Heartbeat CPU 0 instructions: 240000003 cycles: 161441475 heartbeat IPC: 1.16373 cumulative IPC: 1.30129 (Simulation time: 0 hr 7 min 22 sec) 
Heartbeat CPU 0 instructions: 250000001 cycles: 169784836 heartbeat IPC: 1.19856 cumulative IPC: 1.29574 (Simulation time: 0 hr 7 min 40 sec) 
Finished CPU 0 instructions: 200000003 cycles: 154352109 cumulative IPC: 1.29574 (Simulation time: 0 hr 7 min 40 sec) 

ChampSim completed all CPUs

Region of Interest Statistics

CPU 0 cumulative IPC: 1.29574 instructions: 200000003 cycles: 154352109
L1D TOTAL     ACCESS:   80033635  HIT:   77874473  MISS:    2159162
L1D LOAD      ACCESS:   30531899  HIT:   29721886  MISS:     810013
L1D RFO       ACCESS:   19689573  HIT:   19500734  MISS:     188839
L1D PREFETCH  ACCESS:   29812163  HIT:   28651853  MISS:    1160310
L1D WRITEBACK ACCESS:          0  HIT:          0  MISS:          0
L1D PREFETCH  REQUESTED:   38298437  ISSUED:   38062178  USEFUL:     496142  USELESS:    1112117
L1D AVERAGE MISS LATENCY: 38.9704 cycles
L1I TOTAL     ACCESS:   33406106  HIT:   33406101  MISS:          5
L1I LOAD      ACCESS:   33406104  HIT:   33406101  MISS:          3
L1I RFO       ACCESS:          0  HIT:          0  MISS:          0
L1I PREFETCH  ACCESS:          2  HIT:          0  MISS:          2
L1I WRITEBACK ACCESS:          0  HIT:          0  MISS:          0
L1I PREFETCH  REQUESTED:        209  ISSUED:        209  USEFUL:         57  USELESS:          0
L1I AVERAGE MISS LATENCY: 234.4 cycles
L2C TOTAL     ACCESS:    3037018  HIT:    2015676  MISS:    1021342
L2C LOAD      ACCESS:     807899  HIT:     525984  MISS:     281915
L2C RFO       ACCESS:     188839  HIT:      33120  MISS:     155719
L2C PREFETCH  ACCESS:    1703309  HIT:    1119787  MISS:     583522
L2C WRITEBACK ACCESS:     336971  HIT:     336785  MISS:        186
L2C PREFETCH  REQUESTED:    4465792  ISSUED:    3735052  USEFUL:     149446  USELESS:     683094
L2C AVERAGE MISS LATENCY: 59.7551 cycles
LLC TOTAL     ACCESS:    4162052  HIT:    3782652  MISS:     379400
LLC LOAD      ACCESS:     281914  HIT:     247875  MISS:      34039
LLC RFO       ACCESS:     155719  HIT:      55882  MISS:      99837
LLC PREFETCH  ACCESS:    3436165  HIT:    3198252  MISS:     237913
LLC WRITEBACK ACCESS:     288254  HIT:     280643  MISS:       7611
LLC PREFETCH  REQUESTED:    3569933  ISSUED:    3500719  USEFUL:     140186  USELESS:     206324
LLC AVERAGE MISS LATENCY: 187.558 cycles
Major fault: 0 Minor fault: 1546
CPU 0 L1D next line prefetcher final stats

L2C Signature Path Prefetcher final stats
LLC Next Line Prefetcher Final Stats: none

DRAM Statistics
 CHANNEL 0
 RQ ROW_BUFFER_HIT:      52818  ROW_BUFFER_MISS:     318857
 DBUS_CONGESTED:     203459
 WQ ROW_BUFFER_HIT:      70432  ROW_BUFFER_MISS:     184405  FULL:          0

 AVG_CONGESTED_CYCLE: 6

CPU 0 Branch Prediction Accuracy: 94.4192% MPKI: 8.71722 Average ROB Occupancy at Mispredict: 22.7565

Branch types
NOT_BRANCH: 168759514 84.3798%
BRANCH_DIRECT_JUMP: 2596638 1.29832%
BRANCH_INDIRECT: 76 3.8e-05%
BRANCH_CONDITIONAL: 28637047 14.3185%
BRANCH_DIRECT_CALL: 3203 0.0016015%
BRANCH_INDIRECT_CALL: 0 0%
BRANCH_RETURN: 3203 0.0016015%
BRANCH_OTHER: 0 0%

