
*** ChampSim Multicore Out-of-Order Simulator ***

Warmup Instructions: 50000000
Simulation Instructions: 200000000
Number of CPUs: 1
LLC sets: 2048
LLC ways: 16
Off-chip DRAM Size: 4096 MB Channels: 1 Width: 64-bit Data Rate: 3200 MT/s

CPU 0 runs /home/alff/Desktop/arq/ChampSim/dpc3_traces/450.soplex-247B.champsimtrace.xz
CPU 0 L1D next line prefetcher
L2C Signature Path Prefetcher
Initialize DRRIP state
Assign rand_sets[0]: 454  LLC: 2048
rand_sets[0]: 454
Assign rand_sets[1]: 1662  LLC: 2048
rand_sets[1]: 1662
Assign rand_sets[2]: 1921  LLC: 2048
rand_sets[2]: 1921
Assign rand_sets[3]: 1131  LLC: 2048
rand_sets[3]: 1131
Assign rand_sets[4]: 331  LLC: 2048
rand_sets[4]: 331
Assign rand_sets[5]: 1531  LLC: 2048
rand_sets[5]: 1531
Assign rand_sets[6]: 482  LLC: 2048
rand_sets[6]: 482
Assign rand_sets[7]: 1275  LLC: 2048
rand_sets[7]: 1275
Assign rand_sets[8]: 1876  LLC: 2048
rand_sets[8]: 1876
Assign rand_sets[9]: 2038  LLC: 2048
rand_sets[9]: 2038
Assign rand_sets[10]: 701  LLC: 2048
rand_sets[10]: 701
Assign rand_sets[11]: 479  LLC: 2048
rand_sets[11]: 479
Assign rand_sets[12]: 892  LLC: 2048
rand_sets[12]: 892
Assign rand_sets[13]: 1820  LLC: 2048
rand_sets[13]: 1820
Assign rand_sets[14]: 1505  LLC: 2048
rand_sets[14]: 1505
Assign rand_sets[15]: 1159  LLC: 2048
rand_sets[15]: 1159
Assign rand_sets[16]: 513  LLC: 2048
rand_sets[16]: 513
Assign rand_sets[17]: 703  LLC: 2048
rand_sets[17]: 703
Assign rand_sets[18]: 561  LLC: 2048
rand_sets[18]: 561
Assign rand_sets[19]: 990  LLC: 2048
rand_sets[19]: 990
Assign rand_sets[20]: 342  LLC: 2048
rand_sets[20]: 342
Assign rand_sets[21]: 882  LLC: 2048
rand_sets[21]: 882
Assign rand_sets[22]: 15  LLC: 2048
rand_sets[22]: 15
Assign rand_sets[23]: 71  LLC: 2048
rand_sets[23]: 71
Assign rand_sets[24]: 1127  LLC: 2048
rand_sets[24]: 1127
Assign rand_sets[25]: 1382  LLC: 2048
rand_sets[25]: 1382
Assign rand_sets[26]: 647  LLC: 2048
rand_sets[26]: 647
Assign rand_sets[27]: 857  LLC: 2048
rand_sets[27]: 857
Assign rand_sets[28]: 1450  LLC: 2048
rand_sets[28]: 1450
Assign rand_sets[29]: 1160  LLC: 2048
rand_sets[29]: 1160
Assign rand_sets[30]: 1852  LLC: 2048
rand_sets[30]: 1852
Assign rand_sets[31]: 1881  LLC: 2048
rand_sets[31]: 1881
Assign rand_sets[32]: 1770  LLC: 2048
rand_sets[32]: 1770
Assign rand_sets[33]: 1622  LLC: 2048
rand_sets[33]: 1622
Assign rand_sets[34]: 275  LLC: 2048
rand_sets[34]: 275
Assign rand_sets[35]: 635  LLC: 2048
rand_sets[35]: 635
Assign rand_sets[36]: 466  LLC: 2048
rand_sets[36]: 466
Assign rand_sets[37]: 1413  LLC: 2048
rand_sets[37]: 1413
Assign rand_sets[38]: 417  LLC: 2048
rand_sets[38]: 417
Assign rand_sets[39]: 472  LLC: 2048
rand_sets[39]: 472
Assign rand_sets[40]: 1340  LLC: 2048
rand_sets[40]: 1340
Assign rand_sets[41]: 852  LLC: 2048
rand_sets[41]: 852
Assign rand_sets[42]: 1365  LLC: 2048
rand_sets[42]: 1365
Assign rand_sets[43]: 47  LLC: 2048
rand_sets[43]: 47
Assign rand_sets[44]: 823  LLC: 2048
rand_sets[44]: 823
Assign rand_sets[45]: 686  LLC: 2048
rand_sets[45]: 686
Assign rand_sets[46]: 1637  LLC: 2048
rand_sets[46]: 1637
Assign rand_sets[47]: 1115  LLC: 2048
rand_sets[47]: 1115
Assign rand_sets[48]: 986  LLC: 2048
rand_sets[48]: 986
Assign rand_sets[49]: 258  LLC: 2048
rand_sets[49]: 258
Assign rand_sets[50]: 633  LLC: 2048
rand_sets[50]: 633
Assign rand_sets[51]: 920  LLC: 2048
rand_sets[51]: 920
Assign rand_sets[52]: 204  LLC: 2048
rand_sets[52]: 204
Assign rand_sets[53]: 227  LLC: 2048
rand_sets[53]: 227
Assign rand_sets[54]: 1818  LLC: 2048
rand_sets[54]: 1818
Assign rand_sets[55]: 886  LLC: 2048
rand_sets[55]: 886
Assign rand_sets[56]: 1422  LLC: 2048
rand_sets[56]: 1422
Assign rand_sets[57]: 607  LLC: 2048
rand_sets[57]: 607
Assign rand_sets[58]: 217  LLC: 2048
rand_sets[58]: 217
Assign rand_sets[59]: 1945  LLC: 2048
rand_sets[59]: 1945
Assign rand_sets[60]: 143  LLC: 2048
rand_sets[60]: 143
Assign rand_sets[61]: 1311  LLC: 2048
rand_sets[61]: 1311
Assign rand_sets[62]: 319  LLC: 2048
rand_sets[62]: 319
Assign rand_sets[63]: 1846  LLC: 2048
rand_sets[63]: 1846
LLC Next Line Prefetcher
Heartbeat CPU 0 instructions: 10000002 cycles: 4618400 heartbeat IPC: 2.16525 cumulative IPC: 2.16525 (Simulation time: 0 hr 0 min 30 sec) 
Heartbeat CPU 0 instructions: 20000001 cycles: 8617199 heartbeat IPC: 2.50075 cumulative IPC: 2.32094 (Simulation time: 0 hr 0 min 56 sec) 
Heartbeat CPU 0 instructions: 30000000 cycles: 12601362 heartbeat IPC: 2.50994 cumulative IPC: 2.3807 (Simulation time: 0 hr 1 min 23 sec) 
Heartbeat CPU 0 instructions: 40000002 cycles: 16560277 heartbeat IPC: 2.52595 cumulative IPC: 2.41542 (Simulation time: 0 hr 1 min 49 sec) 
Heartbeat CPU 0 instructions: 50000000 cycles: 20521998 heartbeat IPC: 2.52416 cumulative IPC: 2.43641 (Simulation time: 0 hr 2 min 15 sec) 

Warmup complete CPU 0 instructions: 50000004 cycles: 20521999 (Simulation time: 0 hr 2 min 15 sec) 

Heartbeat CPU 0 instructions: 60000002 cycles: 40208209 heartbeat IPC: 0.50797 cumulative IPC: 0.50797 (Simulation time: 0 hr 2 min 47 sec) 
Heartbeat CPU 0 instructions: 70000000 cycles: 61307243 heartbeat IPC: 0.473955 cumulative IPC: 0.490373 (Simulation time: 0 hr 3 min 19 sec) 
Heartbeat CPU 0 instructions: 80000002 cycles: 81856505 heartbeat IPC: 0.486636 cumulative IPC: 0.489121 (Simulation time: 0 hr 3 min 53 sec) 
Heartbeat CPU 0 instructions: 90000002 cycles: 103149302 heartbeat IPC: 0.469642 cumulative IPC: 0.484101 (Simulation time: 0 hr 4 min 27 sec) 
Heartbeat CPU 0 instructions: 100000000 cycles: 122844304 heartbeat IPC: 0.507743 cumulative IPC: 0.488652 (Simulation time: 0 hr 5 min 0 sec) 
Heartbeat CPU 0 instructions: 110000000 cycles: 152380223 heartbeat IPC: 0.338571 cumulative IPC: 0.455034 (Simulation time: 0 hr 5 min 40 sec) 
Heartbeat CPU 0 instructions: 120000003 cycles: 167247474 heartbeat IPC: 0.67262 cumulative IPC: 0.477081 (Simulation time: 0 hr 6 min 12 sec) 
Heartbeat CPU 0 instructions: 130000001 cycles: 189486413 heartbeat IPC: 0.449662 cumulative IPC: 0.473472 (Simulation time: 0 hr 6 min 47 sec) 
Heartbeat CPU 0 instructions: 140000002 cycles: 207382940 heartbeat IPC: 0.558768 cumulative IPC: 0.481642 (Simulation time: 0 hr 7 min 16 sec) 
Heartbeat CPU 0 instructions: 150000002 cycles: 225099126 heartbeat IPC: 0.564456 cumulative IPC: 0.488813 (Simulation time: 0 hr 7 min 46 sec) 
Heartbeat CPU 0 instructions: 160000000 cycles: 244422534 heartbeat IPC: 0.517507 cumulative IPC: 0.49129 (Simulation time: 0 hr 8 min 17 sec) 
Heartbeat CPU 0 instructions: 170000001 cycles: 263222288 heartbeat IPC: 0.531922 cumulative IPC: 0.494437 (Simulation time: 0 hr 8 min 49 sec) 
Heartbeat CPU 0 instructions: 180000002 cycles: 281586860 heartbeat IPC: 0.544527 cumulative IPC: 0.497961 (Simulation time: 0 hr 9 min 21 sec) 
Heartbeat CPU 0 instructions: 190000002 cycles: 299790425 heartbeat IPC: 0.549343 cumulative IPC: 0.50131 (Simulation time: 0 hr 9 min 51 sec) 
Heartbeat CPU 0 instructions: 200000000 cycles: 321562984 heartbeat IPC: 0.459294 cumulative IPC: 0.498271 (Simulation time: 0 hr 10 min 26 sec) 
Heartbeat CPU 0 instructions: 210000001 cycles: 346237618 heartbeat IPC: 0.405275 cumulative IPC: 0.491226 (Simulation time: 0 hr 11 min 1 sec) 
Heartbeat CPU 0 instructions: 220000000 cycles: 364651807 heartbeat IPC: 0.543059 cumulative IPC: 0.494 (Simulation time: 0 hr 11 min 35 sec) 
Heartbeat CPU 0 instructions: 230000001 cycles: 382393776 heartbeat IPC: 0.563635 cumulative IPC: 0.497414 (Simulation time: 0 hr 12 min 7 sec) 
Heartbeat CPU 0 instructions: 240000002 cycles: 401751480 heartbeat IPC: 0.51659 cumulative IPC: 0.498387 (Simulation time: 0 hr 12 min 39 sec) 
Heartbeat CPU 0 instructions: 250000000 cycles: 420715571 heartbeat IPC: 0.527312 cumulative IPC: 0.499758 (Simulation time: 0 hr 13 min 11 sec) 
Finished CPU 0 instructions: 200000001 cycles: 400193574 cumulative IPC: 0.499758 (Simulation time: 0 hr 13 min 11 sec) 

ChampSim completed all CPUs

Region of Interest Statistics

CPU 0 cumulative IPC: 0.499758 instructions: 200000001 cycles: 400193574
L1D TOTAL     ACCESS:   76003950  HIT:   62245573  MISS:   13758377
L1D LOAD      ACCESS:   34063515  HIT:   27892516  MISS:    6170999
L1D RFO       ACCESS:   10625080  HIT:    9037781  MISS:    1587299
L1D PREFETCH  ACCESS:   31315355  HIT:   25315276  MISS:    6000079
L1D WRITEBACK ACCESS:          0  HIT:          0  MISS:          0
L1D PREFETCH  REQUESTED:   48746407  ISSUED:   48084143  USEFUL:    3329110  USELESS:    4286720
L1D AVERAGE MISS LATENCY: 102.525 cycles
L1I TOTAL     ACCESS:   36620238  HIT:   36618585  MISS:       1653
L1I LOAD      ACCESS:   36619370  HIT:   36618248  MISS:       1122
L1I RFO       ACCESS:          0  HIT:          0  MISS:          0
L1I PREFETCH  ACCESS:        868  HIT:        337  MISS:        531
L1I WRITEBACK ACCESS:          0  HIT:          0  MISS:          0
L1I PREFETCH  REQUESTED:       3550  ISSUED:       3550  USEFUL:        570  USELESS:        199
L1I AVERAGE MISS LATENCY: 179.563 cycles
L2C TOTAL     ACCESS:   20564010  HIT:   10854284  MISS:    9709726
L2C LOAD      ACCESS:    5456390  HIT:    2521532  MISS:    2934858
L2C RFO       ACCESS:    1586899  HIT:     237758  MISS:    1349141
L2C PREFETCH  ACCESS:    8984310  HIT:    3558916  MISS:    5425394
L2C WRITEBACK ACCESS:    4536411  HIT:    4536078  MISS:        333
L2C PREFETCH  REQUESTED:   26216012  ISSUED:   23242344  USEFUL:    1216525  USELESS:    5625771
L2C AVERAGE MISS LATENCY: 146.731 cycles
LLC TOTAL     ACCESS:   29441596  HIT:   20854267  MISS:    8587329
LLC LOAD      ACCESS:    2879321  HIT:    1529483  MISS:    1349838
LLC RFO       ACCESS:    1349140  HIT:     263397  MISS:    1085743
LLC PREFETCH  ACCESS:   22025522  HIT:   15984373  MISS:    6041149
LLC WRITEBACK ACCESS:    3187613  HIT:    3077014  MISS:     110599
LLC PREFETCH  REQUESTED:   22314938  ISSUED:   21950792  USEFUL:    1327205  USELESS:    6246514
LLC AVERAGE MISS LATENCY: 270.039 cycles
Major fault: 0 Minor fault: 12936
CPU 0 L1D next line prefetcher final stats

L2C Signature Path Prefetcher final stats
LLC Next Line Prefetcher Final Stats: none

DRAM Statistics
 CHANNEL 0
 RQ ROW_BUFFER_HIT:    2437285  ROW_BUFFER_MISS:    6036879
 DBUS_CONGESTED:    5551420
 WQ ROW_BUFFER_HIT:     540333  ROW_BUFFER_MISS:    1961646  FULL:          0

 AVG_CONGESTED_CYCLE: 6

CPU 0 Branch Prediction Accuracy: 96.298% MPKI: 6.54025 Average ROB Occupancy at Mispredict: 57.6432

Branch types
NOT_BRANCH: 164665737 82.3329%
BRANCH_DIRECT_JUMP: 390802 0.195401%
BRANCH_INDIRECT: 61 3.05e-05%
BRANCH_CONDITIONAL: 34684681 17.3423%
BRANCH_DIRECT_CALL: 128849 0.0644245%
BRANCH_INDIRECT_CALL: 339 0.0001695%
BRANCH_RETURN: 129187 0.0645935%
BRANCH_OTHER: 0 0%

