
*** ChampSim Multicore Out-of-Order Simulator ***

Warmup Instructions: 50000000
Simulation Instructions: 200000000
Number of CPUs: 1
LLC sets: 2048
LLC ways: 16
Off-chip DRAM Size: 4096 MB Channels: 1 Width: 64-bit Data Rate: 3200 MT/s

CPU 0 runs /home/alff/Desktop/arq/ChampSim/dpc3_traces/458.sjeng-283B.champsimtrace.xz
CPU 0 L1D next line prefetcher
L2C Signature Path Prefetcher
Initialize DRRIP state
Assign rand_sets[0]: 454  LLC: 2048
rand_sets[0]: 454
Assign rand_sets[1]: 1662  LLC: 2048
rand_sets[1]: 1662
Assign rand_sets[2]: 1921  LLC: 2048
rand_sets[2]: 1921
Assign rand_sets[3]: 1131  LLC: 2048
rand_sets[3]: 1131
Assign rand_sets[4]: 331  LLC: 2048
rand_sets[4]: 331
Assign rand_sets[5]: 1531  LLC: 2048
rand_sets[5]: 1531
Assign rand_sets[6]: 482  LLC: 2048
rand_sets[6]: 482
Assign rand_sets[7]: 1275  LLC: 2048
rand_sets[7]: 1275
Assign rand_sets[8]: 1876  LLC: 2048
rand_sets[8]: 1876
Assign rand_sets[9]: 2038  LLC: 2048
rand_sets[9]: 2038
Assign rand_sets[10]: 701  LLC: 2048
rand_sets[10]: 701
Assign rand_sets[11]: 479  LLC: 2048
rand_sets[11]: 479
Assign rand_sets[12]: 892  LLC: 2048
rand_sets[12]: 892
Assign rand_sets[13]: 1820  LLC: 2048
rand_sets[13]: 1820
Assign rand_sets[14]: 1505  LLC: 2048
rand_sets[14]: 1505
Assign rand_sets[15]: 1159  LLC: 2048
rand_sets[15]: 1159
Assign rand_sets[16]: 513  LLC: 2048
rand_sets[16]: 513
Assign rand_sets[17]: 703  LLC: 2048
rand_sets[17]: 703
Assign rand_sets[18]: 561  LLC: 2048
rand_sets[18]: 561
Assign rand_sets[19]: 990  LLC: 2048
rand_sets[19]: 990
Assign rand_sets[20]: 342  LLC: 2048
rand_sets[20]: 342
Assign rand_sets[21]: 882  LLC: 2048
rand_sets[21]: 882
Assign rand_sets[22]: 15  LLC: 2048
rand_sets[22]: 15
Assign rand_sets[23]: 71  LLC: 2048
rand_sets[23]: 71
Assign rand_sets[24]: 1127  LLC: 2048
rand_sets[24]: 1127
Assign rand_sets[25]: 1382  LLC: 2048
rand_sets[25]: 1382
Assign rand_sets[26]: 647  LLC: 2048
rand_sets[26]: 647
Assign rand_sets[27]: 857  LLC: 2048
rand_sets[27]: 857
Assign rand_sets[28]: 1450  LLC: 2048
rand_sets[28]: 1450
Assign rand_sets[29]: 1160  LLC: 2048
rand_sets[29]: 1160
Assign rand_sets[30]: 1852  LLC: 2048
rand_sets[30]: 1852
Assign rand_sets[31]: 1881  LLC: 2048
rand_sets[31]: 1881
Assign rand_sets[32]: 1770  LLC: 2048
rand_sets[32]: 1770
Assign rand_sets[33]: 1622  LLC: 2048
rand_sets[33]: 1622
Assign rand_sets[34]: 275  LLC: 2048
rand_sets[34]: 275
Assign rand_sets[35]: 635  LLC: 2048
rand_sets[35]: 635
Assign rand_sets[36]: 466  LLC: 2048
rand_sets[36]: 466
Assign rand_sets[37]: 1413  LLC: 2048
rand_sets[37]: 1413
Assign rand_sets[38]: 417  LLC: 2048
rand_sets[38]: 417
Assign rand_sets[39]: 472  LLC: 2048
rand_sets[39]: 472
Assign rand_sets[40]: 1340  LLC: 2048
rand_sets[40]: 1340
Assign rand_sets[41]: 852  LLC: 2048
rand_sets[41]: 852
Assign rand_sets[42]: 1365  LLC: 2048
rand_sets[42]: 1365
Assign rand_sets[43]: 47  LLC: 2048
rand_sets[43]: 47
Assign rand_sets[44]: 823  LLC: 2048
rand_sets[44]: 823
Assign rand_sets[45]: 686  LLC: 2048
rand_sets[45]: 686
Assign rand_sets[46]: 1637  LLC: 2048
rand_sets[46]: 1637
Assign rand_sets[47]: 1115  LLC: 2048
rand_sets[47]: 1115
Assign rand_sets[48]: 986  LLC: 2048
rand_sets[48]: 986
Assign rand_sets[49]: 258  LLC: 2048
rand_sets[49]: 258
Assign rand_sets[50]: 633  LLC: 2048
rand_sets[50]: 633
Assign rand_sets[51]: 920  LLC: 2048
rand_sets[51]: 920
Assign rand_sets[52]: 204  LLC: 2048
rand_sets[52]: 204
Assign rand_sets[53]: 227  LLC: 2048
rand_sets[53]: 227
Assign rand_sets[54]: 1818  LLC: 2048
rand_sets[54]: 1818
Assign rand_sets[55]: 886  LLC: 2048
rand_sets[55]: 886
Assign rand_sets[56]: 1422  LLC: 2048
rand_sets[56]: 1422
Assign rand_sets[57]: 607  LLC: 2048
rand_sets[57]: 607
Assign rand_sets[58]: 217  LLC: 2048
rand_sets[58]: 217
Assign rand_sets[59]: 1945  LLC: 2048
rand_sets[59]: 1945
Assign rand_sets[60]: 143  LLC: 2048
rand_sets[60]: 143
Assign rand_sets[61]: 1311  LLC: 2048
rand_sets[61]: 1311
Assign rand_sets[62]: 319  LLC: 2048
rand_sets[62]: 319
Assign rand_sets[63]: 1846  LLC: 2048
rand_sets[63]: 1846
LLC Next Line Prefetcher
Heartbeat CPU 0 instructions: 10000002 cycles: 3742977 heartbeat IPC: 2.67167 cumulative IPC: 2.67167 (Simulation time: 0 hr 0 min 24 sec) 
Heartbeat CPU 0 instructions: 20000000 cycles: 7469464 heartbeat IPC: 2.68349 cumulative IPC: 2.67757 (Simulation time: 0 hr 0 min 48 sec) 
Heartbeat CPU 0 instructions: 30000003 cycles: 11180448 heartbeat IPC: 2.6947 cumulative IPC: 2.68326 (Simulation time: 0 hr 1 min 12 sec) 
Heartbeat CPU 0 instructions: 40000000 cycles: 14941682 heartbeat IPC: 2.6587 cumulative IPC: 2.67707 (Simulation time: 0 hr 1 min 36 sec) 
Heartbeat CPU 0 instructions: 50000001 cycles: 18671651 heartbeat IPC: 2.68099 cumulative IPC: 2.67786 (Simulation time: 0 hr 2 min 1 sec) 

Warmup complete CPU 0 instructions: 50000001 cycles: 18671651 (Simulation time: 0 hr 2 min 1 sec) 

Heartbeat CPU 0 instructions: 60000003 cycles: 27478749 heartbeat IPC: 1.13545 cumulative IPC: 1.13545 (Simulation time: 0 hr 2 min 22 sec) 
Heartbeat CPU 0 instructions: 70000001 cycles: 36607220 heartbeat IPC: 1.09547 cumulative IPC: 1.1151 (Simulation time: 0 hr 2 min 43 sec) 
Heartbeat CPU 0 instructions: 80000000 cycles: 45482825 heartbeat IPC: 1.12668 cumulative IPC: 1.11894 (Simulation time: 0 hr 3 min 4 sec) 
Heartbeat CPU 0 instructions: 90000002 cycles: 54476697 heartbeat IPC: 1.11187 cumulative IPC: 1.11716 (Simulation time: 0 hr 3 min 24 sec) 
Heartbeat CPU 0 instructions: 100000000 cycles: 63323208 heartbeat IPC: 1.13039 cumulative IPC: 1.11978 (Simulation time: 0 hr 3 min 45 sec) 
Heartbeat CPU 0 instructions: 110000000 cycles: 72146635 heartbeat IPC: 1.13335 cumulative IPC: 1.12202 (Simulation time: 0 hr 4 min 6 sec) 
Heartbeat CPU 0 instructions: 120000000 cycles: 80974150 heartbeat IPC: 1.13282 cumulative IPC: 1.12355 (Simulation time: 0 hr 4 min 26 sec) 
Heartbeat CPU 0 instructions: 130000000 cycles: 89637182 heartbeat IPC: 1.15433 cumulative IPC: 1.12731 (Simulation time: 0 hr 4 min 47 sec) 
Heartbeat CPU 0 instructions: 140000001 cycles: 98529981 heartbeat IPC: 1.12451 cumulative IPC: 1.127 (Simulation time: 0 hr 5 min 8 sec) 
Heartbeat CPU 0 instructions: 150000000 cycles: 107071061 heartbeat IPC: 1.17081 cumulative IPC: 1.13123 (Simulation time: 0 hr 5 min 29 sec) 
Heartbeat CPU 0 instructions: 160000000 cycles: 116059672 heartbeat IPC: 1.11252 cumulative IPC: 1.1295 (Simulation time: 0 hr 5 min 51 sec) 
Heartbeat CPU 0 instructions: 170000000 cycles: 125097814 heartbeat IPC: 1.10642 cumulative IPC: 1.12754 (Simulation time: 0 hr 6 min 12 sec) 
Heartbeat CPU 0 instructions: 180000000 cycles: 133907739 heartbeat IPC: 1.13508 cumulative IPC: 1.12812 (Simulation time: 0 hr 6 min 33 sec) 
Heartbeat CPU 0 instructions: 190000000 cycles: 142652059 heartbeat IPC: 1.1436 cumulative IPC: 1.12921 (Simulation time: 0 hr 6 min 54 sec) 
Heartbeat CPU 0 instructions: 200000000 cycles: 151431438 heartbeat IPC: 1.13903 cumulative IPC: 1.12986 (Simulation time: 0 hr 7 min 16 sec) 
Heartbeat CPU 0 instructions: 210000000 cycles: 160025189 heartbeat IPC: 1.16364 cumulative IPC: 1.13191 (Simulation time: 0 hr 7 min 37 sec) 
Heartbeat CPU 0 instructions: 220000000 cycles: 168773356 heartbeat IPC: 1.1431 cumulative IPC: 1.13257 (Simulation time: 0 hr 7 min 58 sec) 
Heartbeat CPU 0 instructions: 230000003 cycles: 177627252 heartbeat IPC: 1.12945 cumulative IPC: 1.13239 (Simulation time: 0 hr 8 min 18 sec) 
Heartbeat CPU 0 instructions: 240000000 cycles: 186333295 heartbeat IPC: 1.14863 cumulative IPC: 1.13323 (Simulation time: 0 hr 8 min 39 sec) 
Heartbeat CPU 0 instructions: 250000003 cycles: 194957729 heartbeat IPC: 1.1595 cumulative IPC: 1.13452 (Simulation time: 0 hr 9 min 0 sec) 
Finished CPU 0 instructions: 200000002 cycles: 176286078 cumulative IPC: 1.13452 (Simulation time: 0 hr 9 min 0 sec) 

ChampSim completed all CPUs

Region of Interest Statistics

CPU 0 cumulative IPC: 1.13452 instructions: 200000002 cycles: 176286078
L1D TOTAL     ACCESS:   86018438  HIT:   85750286  MISS:     268152
L1D LOAD      ACCESS:   34249810  HIT:   34141743  MISS:     108067
L1D RFO       ACCESS:   18065794  HIT:   18024123  MISS:      41671
L1D PREFETCH  ACCESS:   33702834  HIT:   33584420  MISS:     118414
L1D WRITEBACK ACCESS:          0  HIT:          0  MISS:          0
L1D PREFETCH  REQUESTED:   44767475  ISSUED:   44074846  USEFUL:      19504  USELESS:     127390
L1D AVERAGE MISS LATENCY: 106.713 cycles
L1I TOTAL     ACCESS:   36222957  HIT:   36205671  MISS:      17286
L1I LOAD      ACCESS:   36209926  HIT:   36197324  MISS:      12602
L1I RFO       ACCESS:          0  HIT:          0  MISS:          0
L1I PREFETCH  ACCESS:      13031  HIT:       8347  MISS:       4684
L1I WRITEBACK ACCESS:          0  HIT:          0  MISS:          0
L1I PREFETCH  REQUESTED:      28407  ISSUED:      28407  USEFUL:       3221  USELESS:       2482
L1I AVERAGE MISS LATENCY: 14.9649 cycles
L2C TOTAL     ACCESS:     405263  HIT:     267178  MISS:     138085
L2C LOAD      ACCESS:     119234  HIT:      50894  MISS:      68340
L2C RFO       ACCESS:      41629  HIT:      39200  MISS:       2429
L2C PREFETCH  ACCESS:     136718  HIT:      69703  MISS:      67015
L2C WRITEBACK ACCESS:     107682  HIT:     107381  MISS:        301
L2C PREFETCH  REQUESTED:      36442  ISSUED:      36442  USEFUL:       1597  USELESS:      78494
L2C AVERAGE MISS LATENCY: 177.561 cycles
LLC TOTAL     ACCESS:     289769  HIT:      96677  MISS:     193092
LLC LOAD      ACCESS:      68340  HIT:       4254  MISS:      64086
LLC RFO       ACCESS:       2429  HIT:       1127  MISS:       1302
LLC PREFETCH  ACCESS:     158863  HIT:      32799  MISS:     126064
LLC WRITEBACK ACCESS:      60137  HIT:      58497  MISS:       1640
LLC PREFETCH  REQUESTED:     170838  ISSUED:     168223  USEFUL:       1486  USELESS:     125238
LLC AVERAGE MISS LATENCY: 157.082 cycles
Major fault: 0 Minor fault: 30164
CPU 0 L1D next line prefetcher final stats

L2C Signature Path Prefetcher final stats
LLC Next Line Prefetcher Final Stats: none

DRAM Statistics
 CHANNEL 0
 RQ ROW_BUFFER_HIT:      27326  ROW_BUFFER_MISS:     164126
 DBUS_CONGESTED:      66957
 WQ ROW_BUFFER_HIT:       1464  ROW_BUFFER_MISS:      56094  FULL:          0

 AVG_CONGESTED_CYCLE: 3

CPU 0 Branch Prediction Accuracy: 97.2874% MPKI: 6.11112 Average ROB Occupancy at Mispredict: 44.3512

Branch types
NOT_BRANCH: 154941998 77.471%
BRANCH_DIRECT_JUMP: 2314824 1.15741%
BRANCH_INDIRECT: 709435 0.354717%
BRANCH_CONDITIONAL: 38229733 19.1149%
BRANCH_DIRECT_CALL: 1573578 0.786789%
BRANCH_INDIRECT_CALL: 328255 0.164127%
BRANCH_RETURN: 1901833 0.950916%
BRANCH_OTHER: 0 0%

