
*** ChampSim Multicore Out-of-Order Simulator ***

Warmup Instructions: 50000000
Simulation Instructions: 200000000
Number of CPUs: 1
LLC sets: 2048
LLC ways: 16
Off-chip DRAM Size: 4096 MB Channels: 1 Width: 64-bit Data Rate: 3200 MT/s

CPU 0 runs /home/alff/Desktop/arq/ChampSim/dpc3_traces/458.sjeng-767B.champsimtrace.xz
CPU 0 L1D next line prefetcher
L2C Signature Path Prefetcher
Initialize DRRIP state
Assign rand_sets[0]: 454  LLC: 2048
rand_sets[0]: 454
Assign rand_sets[1]: 1662  LLC: 2048
rand_sets[1]: 1662
Assign rand_sets[2]: 1921  LLC: 2048
rand_sets[2]: 1921
Assign rand_sets[3]: 1131  LLC: 2048
rand_sets[3]: 1131
Assign rand_sets[4]: 331  LLC: 2048
rand_sets[4]: 331
Assign rand_sets[5]: 1531  LLC: 2048
rand_sets[5]: 1531
Assign rand_sets[6]: 482  LLC: 2048
rand_sets[6]: 482
Assign rand_sets[7]: 1275  LLC: 2048
rand_sets[7]: 1275
Assign rand_sets[8]: 1876  LLC: 2048
rand_sets[8]: 1876
Assign rand_sets[9]: 2038  LLC: 2048
rand_sets[9]: 2038
Assign rand_sets[10]: 701  LLC: 2048
rand_sets[10]: 701
Assign rand_sets[11]: 479  LLC: 2048
rand_sets[11]: 479
Assign rand_sets[12]: 892  LLC: 2048
rand_sets[12]: 892
Assign rand_sets[13]: 1820  LLC: 2048
rand_sets[13]: 1820
Assign rand_sets[14]: 1505  LLC: 2048
rand_sets[14]: 1505
Assign rand_sets[15]: 1159  LLC: 2048
rand_sets[15]: 1159
Assign rand_sets[16]: 513  LLC: 2048
rand_sets[16]: 513
Assign rand_sets[17]: 703  LLC: 2048
rand_sets[17]: 703
Assign rand_sets[18]: 561  LLC: 2048
rand_sets[18]: 561
Assign rand_sets[19]: 990  LLC: 2048
rand_sets[19]: 990
Assign rand_sets[20]: 342  LLC: 2048
rand_sets[20]: 342
Assign rand_sets[21]: 882  LLC: 2048
rand_sets[21]: 882
Assign rand_sets[22]: 15  LLC: 2048
rand_sets[22]: 15
Assign rand_sets[23]: 71  LLC: 2048
rand_sets[23]: 71
Assign rand_sets[24]: 1127  LLC: 2048
rand_sets[24]: 1127
Assign rand_sets[25]: 1382  LLC: 2048
rand_sets[25]: 1382
Assign rand_sets[26]: 647  LLC: 2048
rand_sets[26]: 647
Assign rand_sets[27]: 857  LLC: 2048
rand_sets[27]: 857
Assign rand_sets[28]: 1450  LLC: 2048
rand_sets[28]: 1450
Assign rand_sets[29]: 1160  LLC: 2048
rand_sets[29]: 1160
Assign rand_sets[30]: 1852  LLC: 2048
rand_sets[30]: 1852
Assign rand_sets[31]: 1881  LLC: 2048
rand_sets[31]: 1881
Assign rand_sets[32]: 1770  LLC: 2048
rand_sets[32]: 1770
Assign rand_sets[33]: 1622  LLC: 2048
rand_sets[33]: 1622
Assign rand_sets[34]: 275  LLC: 2048
rand_sets[34]: 275
Assign rand_sets[35]: 635  LLC: 2048
rand_sets[35]: 635
Assign rand_sets[36]: 466  LLC: 2048
rand_sets[36]: 466
Assign rand_sets[37]: 1413  LLC: 2048
rand_sets[37]: 1413
Assign rand_sets[38]: 417  LLC: 2048
rand_sets[38]: 417
Assign rand_sets[39]: 472  LLC: 2048
rand_sets[39]: 472
Assign rand_sets[40]: 1340  LLC: 2048
rand_sets[40]: 1340
Assign rand_sets[41]: 852  LLC: 2048
rand_sets[41]: 852
Assign rand_sets[42]: 1365  LLC: 2048
rand_sets[42]: 1365
Assign rand_sets[43]: 47  LLC: 2048
rand_sets[43]: 47
Assign rand_sets[44]: 823  LLC: 2048
rand_sets[44]: 823
Assign rand_sets[45]: 686  LLC: 2048
rand_sets[45]: 686
Assign rand_sets[46]: 1637  LLC: 2048
rand_sets[46]: 1637
Assign rand_sets[47]: 1115  LLC: 2048
rand_sets[47]: 1115
Assign rand_sets[48]: 986  LLC: 2048
rand_sets[48]: 986
Assign rand_sets[49]: 258  LLC: 2048
rand_sets[49]: 258
Assign rand_sets[50]: 633  LLC: 2048
rand_sets[50]: 633
Assign rand_sets[51]: 920  LLC: 2048
rand_sets[51]: 920
Assign rand_sets[52]: 204  LLC: 2048
rand_sets[52]: 204
Assign rand_sets[53]: 227  LLC: 2048
rand_sets[53]: 227
Assign rand_sets[54]: 1818  LLC: 2048
rand_sets[54]: 1818
Assign rand_sets[55]: 886  LLC: 2048
rand_sets[55]: 886
Assign rand_sets[56]: 1422  LLC: 2048
rand_sets[56]: 1422
Assign rand_sets[57]: 607  LLC: 2048
rand_sets[57]: 607
Assign rand_sets[58]: 217  LLC: 2048
rand_sets[58]: 217
Assign rand_sets[59]: 1945  LLC: 2048
rand_sets[59]: 1945
Assign rand_sets[60]: 143  LLC: 2048
rand_sets[60]: 143
Assign rand_sets[61]: 1311  LLC: 2048
rand_sets[61]: 1311
Assign rand_sets[62]: 319  LLC: 2048
rand_sets[62]: 319
Assign rand_sets[63]: 1846  LLC: 2048
rand_sets[63]: 1846
LLC Next Line Prefetcher
Heartbeat CPU 0 instructions: 10000000 cycles: 3736789 heartbeat IPC: 2.67609 cumulative IPC: 2.67609 (Simulation time: 0 hr 0 min 25 sec) 
Heartbeat CPU 0 instructions: 20000000 cycles: 7461099 heartbeat IPC: 2.68506 cumulative IPC: 2.68057 (Simulation time: 0 hr 0 min 49 sec) 
Heartbeat CPU 0 instructions: 30000001 cycles: 11181208 heartbeat IPC: 2.68809 cumulative IPC: 2.68307 (Simulation time: 0 hr 1 min 13 sec) 
Heartbeat CPU 0 instructions: 40000002 cycles: 14893528 heartbeat IPC: 2.69373 cumulative IPC: 2.68573 (Simulation time: 0 hr 1 min 38 sec) 
Heartbeat CPU 0 instructions: 50000001 cycles: 18628688 heartbeat IPC: 2.67726 cumulative IPC: 2.68403 (Simulation time: 0 hr 2 min 3 sec) 

Warmup complete CPU 0 instructions: 50000001 cycles: 18628688 (Simulation time: 0 hr 2 min 3 sec) 

Heartbeat CPU 0 instructions: 60000003 cycles: 27291290 heartbeat IPC: 1.15439 cumulative IPC: 1.15439 (Simulation time: 0 hr 2 min 24 sec) 
Heartbeat CPU 0 instructions: 70000000 cycles: 35936170 heartbeat IPC: 1.15675 cumulative IPC: 1.15557 (Simulation time: 0 hr 2 min 45 sec) 
Heartbeat CPU 0 instructions: 80000000 cycles: 44422829 heartbeat IPC: 1.17832 cumulative IPC: 1.16305 (Simulation time: 0 hr 3 min 6 sec) 
Heartbeat CPU 0 instructions: 90000000 cycles: 53040483 heartbeat IPC: 1.16041 cumulative IPC: 1.16239 (Simulation time: 0 hr 3 min 27 sec) 
Heartbeat CPU 0 instructions: 100000002 cycles: 61679864 heartbeat IPC: 1.15749 cumulative IPC: 1.16141 (Simulation time: 0 hr 3 min 48 sec) 
Heartbeat CPU 0 instructions: 110000000 cycles: 70243591 heartbeat IPC: 1.16772 cumulative IPC: 1.16245 (Simulation time: 0 hr 4 min 9 sec) 
Heartbeat CPU 0 instructions: 120000002 cycles: 78704413 heartbeat IPC: 1.18192 cumulative IPC: 1.1652 (Simulation time: 0 hr 4 min 30 sec) 
Heartbeat CPU 0 instructions: 130000001 cycles: 87260250 heartbeat IPC: 1.16879 cumulative IPC: 1.16564 (Simulation time: 0 hr 4 min 51 sec) 
Heartbeat CPU 0 instructions: 140000001 cycles: 95846679 heartbeat IPC: 1.16463 cumulative IPC: 1.16553 (Simulation time: 0 hr 5 min 12 sec) 
Heartbeat CPU 0 instructions: 150000000 cycles: 104485681 heartbeat IPC: 1.15754 cumulative IPC: 1.16473 (Simulation time: 0 hr 5 min 33 sec) 
Heartbeat CPU 0 instructions: 160000001 cycles: 112930729 heartbeat IPC: 1.18413 cumulative IPC: 1.16646 (Simulation time: 0 hr 5 min 54 sec) 
Heartbeat CPU 0 instructions: 170000000 cycles: 121376047 heartbeat IPC: 1.18409 cumulative IPC: 1.16791 (Simulation time: 0 hr 6 min 14 sec) 
Heartbeat CPU 0 instructions: 180000001 cycles: 129911810 heartbeat IPC: 1.17154 cumulative IPC: 1.16819 (Simulation time: 0 hr 6 min 35 sec) 
Heartbeat CPU 0 instructions: 190000002 cycles: 138069333 heartbeat IPC: 1.22586 cumulative IPC: 1.17213 (Simulation time: 0 hr 6 min 56 sec) 
Heartbeat CPU 0 instructions: 200000000 cycles: 146605398 heartbeat IPC: 1.1715 cumulative IPC: 1.17209 (Simulation time: 0 hr 7 min 18 sec) 
Heartbeat CPU 0 instructions: 210000000 cycles: 155091345 heartbeat IPC: 1.17842 cumulative IPC: 1.17248 (Simulation time: 0 hr 7 min 39 sec) 
Heartbeat CPU 0 instructions: 220000000 cycles: 163461926 heartbeat IPC: 1.19466 cumulative IPC: 1.17376 (Simulation time: 0 hr 8 min 0 sec) 
Heartbeat CPU 0 instructions: 230000003 cycles: 171867562 heartbeat IPC: 1.18968 cumulative IPC: 1.17464 (Simulation time: 0 hr 8 min 21 sec) 
Heartbeat CPU 0 instructions: 240000000 cycles: 180194672 heartbeat IPC: 1.2009 cumulative IPC: 1.17599 (Simulation time: 0 hr 8 min 42 sec) 
Heartbeat CPU 0 instructions: 250000000 cycles: 188209562 heartbeat IPC: 1.24768 cumulative IPC: 1.17938 (Simulation time: 0 hr 9 min 4 sec) 
Finished CPU 0 instructions: 200000003 cycles: 169580876 cumulative IPC: 1.17938 (Simulation time: 0 hr 9 min 4 sec) 

ChampSim completed all CPUs

Region of Interest Statistics

CPU 0 cumulative IPC: 1.17938 instructions: 200000003 cycles: 169580876
L1D TOTAL     ACCESS:   85185983  HIT:   84892665  MISS:     293318
L1D LOAD      ACCESS:   34737927  HIT:   34614602  MISS:     123325
L1D RFO       ACCESS:   15964404  HIT:   15925007  MISS:      39397
L1D PREFETCH  ACCESS:   34483652  HIT:   34353056  MISS:     130596
L1D WRITEBACK ACCESS:          0  HIT:          0  MISS:          0
L1D PREFETCH  REQUESTED:   45549683  ISSUED:   45267267  USEFUL:      19483  USELESS:     146734
L1D AVERAGE MISS LATENCY: 105.42 cycles
L1I TOTAL     ACCESS:   36220458  HIT:   36205463  MISS:      14995
L1I LOAD      ACCESS:   36209891  HIT:   36199203  MISS:      10688
L1I RFO       ACCESS:          0  HIT:          0  MISS:          0
L1I PREFETCH  ACCESS:      10567  HIT:       6260  MISS:       4307
L1I WRITEBACK ACCESS:          0  HIT:          0  MISS:          0
L1I PREFETCH  REQUESTED:      25464  ISSUED:      25464  USEFUL:       3319  USELESS:       2312
L1I AVERAGE MISS LATENCY: 15.3442 cycles
L2C TOTAL     ACCESS:     427399  HIT:     280407  MISS:     146992
L2C LOAD      ACCESS:     132633  HIT:      59294  MISS:      73339
L2C RFO       ACCESS:      39332  HIT:      37274  MISS:       2058
L2C PREFETCH  ACCESS:     146695  HIT:      75359  MISS:      71336
L2C WRITEBACK ACCESS:     108739  HIT:     108480  MISS:        259
L2C PREFETCH  REQUESTED:      39880  ISSUED:      39880  USEFUL:       1125  USELESS:      86286
L2C AVERAGE MISS LATENCY: 180.013 cycles
LLC TOTAL     ACCESS:     313727  HIT:     105261  MISS:     208466
LLC LOAD      ACCESS:      73339  HIT:       3944  MISS:      69395
LLC RFO       ACCESS:       2058  HIT:        843  MISS:       1215
LLC PREFETCH  ACCESS:     175624  HIT:      39428  MISS:     136196
LLC WRITEBACK ACCESS:      62706  HIT:      61046  MISS:       1660
LLC PREFETCH  REQUESTED:     189775  ISSUED:     187063  USEFUL:       1467  USELESS:     138909
LLC AVERAGE MISS LATENCY: 157.445 cycles
Major fault: 0 Minor fault: 31596
CPU 0 L1D next line prefetcher final stats

L2C Signature Path Prefetcher final stats
LLC Next Line Prefetcher Final Stats: none

DRAM Statistics
 CHANNEL 0
 RQ ROW_BUFFER_HIT:      28787  ROW_BUFFER_MISS:     178019
 DBUS_CONGESTED:      72936
 WQ ROW_BUFFER_HIT:       1733  ROW_BUFFER_MISS:      59842  FULL:          0

 AVG_CONGESTED_CYCLE: 3

CPU 0 Branch Prediction Accuracy: 97.5683% MPKI: 5.35132 Average ROB Occupancy at Mispredict: 46.745

Branch types
NOT_BRANCH: 155986496 77.9932%
BRANCH_DIRECT_JUMP: 2667172 1.33359%
BRANCH_INDIRECT: 1057438 0.528719%
BRANCH_CONDITIONAL: 36438506 18.2193%
BRANCH_DIRECT_CALL: 1386405 0.693202%
BRANCH_INDIRECT_CALL: 538677 0.269338%
BRANCH_RETURN: 1925085 0.962542%
BRANCH_OTHER: 0 0%

