
*** ChampSim Multicore Out-of-Order Simulator ***

Warmup Instructions: 50000000
Simulation Instructions: 200000000
Number of CPUs: 1
LLC sets: 2048
LLC ways: 16
Off-chip DRAM Size: 4096 MB Channels: 1 Width: 64-bit Data Rate: 3200 MT/s

CPU 0 runs /home/alff/Desktop/arq/ChampSim/dpc3_traces/473.astar-359B.champsimtrace.xz
CPU 0 L1D next line prefetcher
L2C Signature Path Prefetcher
Initialize DRRIP state
Assign rand_sets[0]: 454  LLC: 2048
rand_sets[0]: 454
Assign rand_sets[1]: 1662  LLC: 2048
rand_sets[1]: 1662
Assign rand_sets[2]: 1921  LLC: 2048
rand_sets[2]: 1921
Assign rand_sets[3]: 1131  LLC: 2048
rand_sets[3]: 1131
Assign rand_sets[4]: 331  LLC: 2048
rand_sets[4]: 331
Assign rand_sets[5]: 1531  LLC: 2048
rand_sets[5]: 1531
Assign rand_sets[6]: 482  LLC: 2048
rand_sets[6]: 482
Assign rand_sets[7]: 1275  LLC: 2048
rand_sets[7]: 1275
Assign rand_sets[8]: 1876  LLC: 2048
rand_sets[8]: 1876
Assign rand_sets[9]: 2038  LLC: 2048
rand_sets[9]: 2038
Assign rand_sets[10]: 701  LLC: 2048
rand_sets[10]: 701
Assign rand_sets[11]: 479  LLC: 2048
rand_sets[11]: 479
Assign rand_sets[12]: 892  LLC: 2048
rand_sets[12]: 892
Assign rand_sets[13]: 1820  LLC: 2048
rand_sets[13]: 1820
Assign rand_sets[14]: 1505  LLC: 2048
rand_sets[14]: 1505
Assign rand_sets[15]: 1159  LLC: 2048
rand_sets[15]: 1159
Assign rand_sets[16]: 513  LLC: 2048
rand_sets[16]: 513
Assign rand_sets[17]: 703  LLC: 2048
rand_sets[17]: 703
Assign rand_sets[18]: 561  LLC: 2048
rand_sets[18]: 561
Assign rand_sets[19]: 990  LLC: 2048
rand_sets[19]: 990
Assign rand_sets[20]: 342  LLC: 2048
rand_sets[20]: 342
Assign rand_sets[21]: 882  LLC: 2048
rand_sets[21]: 882
Assign rand_sets[22]: 15  LLC: 2048
rand_sets[22]: 15
Assign rand_sets[23]: 71  LLC: 2048
rand_sets[23]: 71
Assign rand_sets[24]: 1127  LLC: 2048
rand_sets[24]: 1127
Assign rand_sets[25]: 1382  LLC: 2048
rand_sets[25]: 1382
Assign rand_sets[26]: 647  LLC: 2048
rand_sets[26]: 647
Assign rand_sets[27]: 857  LLC: 2048
rand_sets[27]: 857
Assign rand_sets[28]: 1450  LLC: 2048
rand_sets[28]: 1450
Assign rand_sets[29]: 1160  LLC: 2048
rand_sets[29]: 1160
Assign rand_sets[30]: 1852  LLC: 2048
rand_sets[30]: 1852
Assign rand_sets[31]: 1881  LLC: 2048
rand_sets[31]: 1881
Assign rand_sets[32]: 1770  LLC: 2048
rand_sets[32]: 1770
Assign rand_sets[33]: 1622  LLC: 2048
rand_sets[33]: 1622
Assign rand_sets[34]: 275  LLC: 2048
rand_sets[34]: 275
Assign rand_sets[35]: 635  LLC: 2048
rand_sets[35]: 635
Assign rand_sets[36]: 466  LLC: 2048
rand_sets[36]: 466
Assign rand_sets[37]: 1413  LLC: 2048
rand_sets[37]: 1413
Assign rand_sets[38]: 417  LLC: 2048
rand_sets[38]: 417
Assign rand_sets[39]: 472  LLC: 2048
rand_sets[39]: 472
Assign rand_sets[40]: 1340  LLC: 2048
rand_sets[40]: 1340
Assign rand_sets[41]: 852  LLC: 2048
rand_sets[41]: 852
Assign rand_sets[42]: 1365  LLC: 2048
rand_sets[42]: 1365
Assign rand_sets[43]: 47  LLC: 2048
rand_sets[43]: 47
Assign rand_sets[44]: 823  LLC: 2048
rand_sets[44]: 823
Assign rand_sets[45]: 686  LLC: 2048
rand_sets[45]: 686
Assign rand_sets[46]: 1637  LLC: 2048
rand_sets[46]: 1637
Assign rand_sets[47]: 1115  LLC: 2048
rand_sets[47]: 1115
Assign rand_sets[48]: 986  LLC: 2048
rand_sets[48]: 986
Assign rand_sets[49]: 258  LLC: 2048
rand_sets[49]: 258
Assign rand_sets[50]: 633  LLC: 2048
rand_sets[50]: 633
Assign rand_sets[51]: 920  LLC: 2048
rand_sets[51]: 920
Assign rand_sets[52]: 204  LLC: 2048
rand_sets[52]: 204
Assign rand_sets[53]: 227  LLC: 2048
rand_sets[53]: 227
Assign rand_sets[54]: 1818  LLC: 2048
rand_sets[54]: 1818
Assign rand_sets[55]: 886  LLC: 2048
rand_sets[55]: 886
Assign rand_sets[56]: 1422  LLC: 2048
rand_sets[56]: 1422
Assign rand_sets[57]: 607  LLC: 2048
rand_sets[57]: 607
Assign rand_sets[58]: 217  LLC: 2048
rand_sets[58]: 217
Assign rand_sets[59]: 1945  LLC: 2048
rand_sets[59]: 1945
Assign rand_sets[60]: 143  LLC: 2048
rand_sets[60]: 143
Assign rand_sets[61]: 1311  LLC: 2048
rand_sets[61]: 1311
Assign rand_sets[62]: 319  LLC: 2048
rand_sets[62]: 319
Assign rand_sets[63]: 1846  LLC: 2048
rand_sets[63]: 1846
LLC Next Line Prefetcher
Heartbeat CPU 0 instructions: 10000001 cycles: 5389243 heartbeat IPC: 1.85555 cumulative IPC: 1.85555 (Simulation time: 0 hr 0 min 33 sec) 
Heartbeat CPU 0 instructions: 20000002 cycles: 10637840 heartbeat IPC: 1.90527 cumulative IPC: 1.88008 (Simulation time: 0 hr 1 min 7 sec) 
Heartbeat CPU 0 instructions: 30000000 cycles: 16103609 heartbeat IPC: 1.82957 cumulative IPC: 1.86294 (Simulation time: 0 hr 1 min 40 sec) 
Heartbeat CPU 0 instructions: 40000003 cycles: 21414648 heartbeat IPC: 1.88287 cumulative IPC: 1.86788 (Simulation time: 0 hr 2 min 14 sec) 
Heartbeat CPU 0 instructions: 50000000 cycles: 26809798 heartbeat IPC: 1.85352 cumulative IPC: 1.86499 (Simulation time: 0 hr 2 min 47 sec) 

Warmup complete CPU 0 instructions: 50000004 cycles: 26809799 (Simulation time: 0 hr 2 min 47 sec) 

Heartbeat CPU 0 instructions: 60000000 cycles: 83284865 heartbeat IPC: 0.177069 cumulative IPC: 0.177069 (Simulation time: 0 hr 3 min 28 sec) 
Heartbeat CPU 0 instructions: 70000000 cycles: 140241635 heartbeat IPC: 0.175572 cumulative IPC: 0.176317 (Simulation time: 0 hr 4 min 9 sec) 
Heartbeat CPU 0 instructions: 80000000 cycles: 194817256 heartbeat IPC: 0.183232 cumulative IPC: 0.178563 (Simulation time: 0 hr 4 min 51 sec) 
Heartbeat CPU 0 instructions: 90000003 cycles: 249540928 heartbeat IPC: 0.182736 cumulative IPC: 0.179589 (Simulation time: 0 hr 5 min 33 sec) 
Heartbeat CPU 0 instructions: 100000001 cycles: 309746908 heartbeat IPC: 0.166096 cumulative IPC: 0.176718 (Simulation time: 0 hr 6 min 16 sec) 
Heartbeat CPU 0 instructions: 110000000 cycles: 373387252 heartbeat IPC: 0.157133 cumulative IPC: 0.173121 (Simulation time: 0 hr 7 min 0 sec) 
Heartbeat CPU 0 instructions: 120000000 cycles: 434065351 heartbeat IPC: 0.164804 cumulative IPC: 0.171882 (Simulation time: 0 hr 7 min 44 sec) 
Heartbeat CPU 0 instructions: 130000000 cycles: 494317449 heartbeat IPC: 0.165969 cumulative IPC: 0.17112 (Simulation time: 0 hr 8 min 28 sec) 
Heartbeat CPU 0 instructions: 140000000 cycles: 552540044 heartbeat IPC: 0.171755 cumulative IPC: 0.17119 (Simulation time: 0 hr 9 min 9 sec) 
Heartbeat CPU 0 instructions: 150000000 cycles: 611473842 heartbeat IPC: 0.169682 cumulative IPC: 0.171038 (Simulation time: 0 hr 9 min 51 sec) 
Heartbeat CPU 0 instructions: 160000003 cycles: 673005252 heartbeat IPC: 0.162519 cumulative IPC: 0.170227 (Simulation time: 0 hr 10 min 35 sec) 
Heartbeat CPU 0 instructions: 170000001 cycles: 731531244 heartbeat IPC: 0.170864 cumulative IPC: 0.17028 (Simulation time: 0 hr 11 min 17 sec) 
Heartbeat CPU 0 instructions: 180000001 cycles: 789748556 heartbeat IPC: 0.17177 cumulative IPC: 0.170394 (Simulation time: 0 hr 11 min 59 sec) 
Heartbeat CPU 0 instructions: 190000000 cycles: 849677029 heartbeat IPC: 0.166866 cumulative IPC: 0.170137 (Simulation time: 0 hr 12 min 40 sec) 
Heartbeat CPU 0 instructions: 200000000 cycles: 910346570 heartbeat IPC: 0.164827 cumulative IPC: 0.169772 (Simulation time: 0 hr 13 min 23 sec) 
Heartbeat CPU 0 instructions: 210000001 cycles: 968547600 heartbeat IPC: 0.171818 cumulative IPC: 0.169899 (Simulation time: 0 hr 14 min 5 sec) 
Heartbeat CPU 0 instructions: 220000000 cycles: 1027296344 heartbeat IPC: 0.170216 cumulative IPC: 0.169917 (Simulation time: 0 hr 14 min 50 sec) 
Heartbeat CPU 0 instructions: 230000003 cycles: 1083820472 heartbeat IPC: 0.176916 cumulative IPC: 0.170292 (Simulation time: 0 hr 15 min 31 sec) 
Heartbeat CPU 0 instructions: 240000000 cycles: 1139160783 heartbeat IPC: 0.1807 cumulative IPC: 0.170809 (Simulation time: 0 hr 16 min 13 sec) 
Heartbeat CPU 0 instructions: 250000002 cycles: 1199770740 heartbeat IPC: 0.164989 cumulative IPC: 0.170509 (Simulation time: 0 hr 17 min 3 sec) 
Finished CPU 0 instructions: 200000002 cycles: 1172960942 cumulative IPC: 0.170509 (Simulation time: 0 hr 17 min 3 sec) 

ChampSim completed all CPUs

Region of Interest Statistics

CPU 0 cumulative IPC: 0.170509 instructions: 200000002 cycles: 1172960942
L1D TOTAL     ACCESS:  123738819  HIT:  107720388  MISS:   16018431
L1D LOAD      ACCESS:   50026980  HIT:   44122031  MISS:    5904949
L1D RFO       ACCESS:   25372045  HIT:   21564194  MISS:    3807851
L1D PREFETCH  ACCESS:   48339794  HIT:   42034163  MISS:    6305631
L1D WRITEBACK ACCESS:          0  HIT:          0  MISS:          0
L1D PREFETCH  REQUESTED:   68099349  ISSUED:   67682983  USEFUL:    1393685  USELESS:    6530988
L1D AVERAGE MISS LATENCY: 231.217 cycles
L1I TOTAL     ACCESS:   39046459  HIT:   39046443  MISS:         16
L1I LOAD      ACCESS:   39046449  HIT:   39046440  MISS:          9
L1I RFO       ACCESS:          0  HIT:          0  MISS:          0
L1I PREFETCH  ACCESS:         10  HIT:          3  MISS:          7
L1I WRITEBACK ACCESS:          0  HIT:          0  MISS:          0
L1I PREFETCH  REQUESTED:        108  ISSUED:        108  USEFUL:         23  USELESS:          0
L1I AVERAGE MISS LATENCY: 180.438 cycles
L2C TOTAL     ACCESS:   23157102  HIT:   13205581  MISS:    9951521
L2C LOAD      ACCESS:    5831799  HIT:    3211837  MISS:    2619962
L2C RFO       ACCESS:    3807851  HIT:     195250  MISS:    3612601
L2C PREFETCH  ACCESS:    8151045  HIT:    4432335  MISS:    3718710
L2C WRITEBACK ACCESS:    5366407  HIT:    5366159  MISS:        248
L2C PREFETCH  REQUESTED:   11588774  ISSUED:   10467452  USEFUL:     701350  USELESS:    3972300
L2C AVERAGE MISS LATENCY: 315.834 cycles
LLC TOTAL     ACCESS:   23938438  HIT:   11035245  MISS:   12903193
LLC LOAD      ACCESS:    2618935  HIT:     287913  MISS:    2331022
LLC RFO       ACCESS:    3612600  HIT:      96977  MISS:    3515623
LLC PREFETCH  ACCESS:   12533695  HIT:    5868105  MISS:    6665590
LLC WRITEBACK ACCESS:    5173208  HIT:    4782250  MISS:     390958
LLC PREFETCH  REQUESTED:   12386854  ISSUED:   12147847  USEFUL:     326129  USELESS:    7788144
LLC AVERAGE MISS LATENCY: 255.091 cycles
Major fault: 0 Minor fault: 29963
CPU 0 L1D next line prefetcher final stats

L2C Signature Path Prefetcher final stats
LLC Next Line Prefetcher Final Stats: none

DRAM Statistics
 CHANNEL 0
 RQ ROW_BUFFER_HIT:     881429  ROW_BUFFER_MISS:   11630577
 DBUS_CONGESTED:    7304993
 WQ ROW_BUFFER_HIT:     692002  ROW_BUFFER_MISS:    4372783  FULL:          0

 AVG_CONGESTED_CYCLE: 5

CPU 0 Branch Prediction Accuracy: 93.3676% MPKI: 12.9801 Average ROB Occupancy at Mispredict: 34.6039

Branch types
NOT_BRANCH: 160858102 80.4291%
BRANCH_DIRECT_JUMP: 1555456 0.777728%
BRANCH_INDIRECT: 0 0%
BRANCH_CONDITIONAL: 22218060 11.109%
BRANCH_DIRECT_CALL: 1562683 0.781341%
BRANCH_INDIRECT_CALL: 6121335 3.06067%
BRANCH_RETURN: 7684019 3.84201%
BRANCH_OTHER: 0 0%

