WARNING: physical memory size is smaller than virtual memory size.

*** ChampSim Multicore Out-of-Order Simulator ***
Warmup Instructions: 200000
Simulation Instructions: 500000
Number of CPUs: 1
Page size: 4096

Off-chip DRAM Size: 4 GiB Channels: 1 Width: 64-bit Data Race: 3200 MT/s
Warmup finished CPU 0 instructions: 200001 cycles: 50049 cumulative IPC: 3.996 (Simulation time: 00 hr 00 min 02 sec)
Warmup complete CPU 0 instructions: 200001 cycles: 50049 cumulative IPC: 3.996 (Simulation time: 00 hr 00 min 02 sec)
Simulation finished CPU 0 instructions: 500002 cycles: 126468 cumulative IPC: 3.954 (Simulation time: 00 hr 00 min 08 sec)
Simulation complete CPU 0 instructions: 500002 cycles: 126468 cumulative IPC: 3.954 (Simulation time: 00 hr 00 min 08 sec)

ChampSim completed all CPUs

=== Simulation ===
CPU 0 runs tracer/454.calculix-104B.champsimtrace.xz
Region of Interest Statistics

CPU 0 cumulative IPC: 3.954 instructions: 500002 cycles: 126468
CPU 0 Branch Prediction Accuracy: 99.94% MPKI: 0.054 Average ROB Occupancy at Mispredict: 352
Branch type MPKI
BRANCH_DIRECT_JUMP: 0
BRANCH_INDIRECT: 0
BRANCH_CONDITIONAL: 0.054
BRANCH_DIRECT_CALL: 0
BRANCH_INDIRECT_CALL: 0
BRANCH_RETURN: 0

LLC TOTAL        ACCESS:         45 HIT:          0 MISS:         45
LLC LOAD         ACCESS:         44 HIT:          0 MISS:         44
LLC RFO          ACCESS:          0 HIT:          0 MISS:          0
LLC PREFETCH     ACCESS:          0 HIT:          0 MISS:          0
LLC WRITE        ACCESS:          0 HIT:          0 MISS:          0
LLC TRANSLATION  ACCESS:          1 HIT:          0 MISS:          1
LLC PREFETCH REQUESTED:          0 ISSUED:          0 USEFUL:          0 USELESS:          0
LLC AVERAGE MISS LATENCY: 96.53 cycles
cpu0_DTLB TOTAL        ACCESS:     102042 HIT:     102041 MISS:          1
cpu0_DTLB LOAD         ACCESS:     102042 HIT:     102041 MISS:          1
cpu0_DTLB RFO          ACCESS:          0 HIT:          0 MISS:          0
cpu0_DTLB PREFETCH     ACCESS:          0 HIT:          0 MISS:          0
cpu0_DTLB WRITE        ACCESS:          0 HIT:          0 MISS:          0
cpu0_DTLB TRANSLATION  ACCESS:          0 HIT:          0 MISS:          0
cpu0_DTLB PREFETCH REQUESTED:          0 ISSUED:          0 USEFUL:          0 USELESS:          0
cpu0_DTLB AVERAGE MISS LATENCY: 413 cycles
cpu0_ITLB TOTAL        ACCESS:          0 HIT:          0 MISS:          0
cpu0_ITLB LOAD         ACCESS:          0 HIT:          0 MISS:          0
cpu0_ITLB RFO          ACCESS:          0 HIT:          0 MISS:          0
cpu0_ITLB PREFETCH     ACCESS:          0 HIT:          0 MISS:          0
cpu0_ITLB WRITE        ACCESS:          0 HIT:          0 MISS:          0
cpu0_ITLB TRANSLATION  ACCESS:          0 HIT:          0 MISS:          0
cpu0_ITLB PREFETCH REQUESTED:          0 ISSUED:          0 USEFUL:          0 USELESS:          0
cpu0_ITLB AVERAGE MISS LATENCY: -nan cycles
cpu0_L1D TOTAL        ACCESS:     154682 HIT:     154635 MISS:         47
cpu0_L1D LOAD         ACCESS:     145409 HIT:     145363 MISS:         46
cpu0_L1D RFO          ACCESS:          0 HIT:          0 MISS:          0
cpu0_L1D PREFETCH     ACCESS:          0 HIT:          0 MISS:          0
cpu0_L1D WRITE        ACCESS:       9272 HIT:       9272 MISS:          0
cpu0_L1D TRANSLATION  ACCESS:          1 HIT:          0 MISS:          1
cpu0_L1D PREFETCH REQUESTED:          0 ISSUED:          0 USEFUL:          0 USELESS:          0
cpu0_L1D AVERAGE MISS LATENCY: 122.8 cycles
cpu0_L1I TOTAL        ACCESS:          0 HIT:          0 MISS:          0
cpu0_L1I LOAD         ACCESS:          0 HIT:          0 MISS:          0
cpu0_L1I RFO          ACCESS:          0 HIT:          0 MISS:          0
cpu0_L1I PREFETCH     ACCESS:          0 HIT:          0 MISS:          0
cpu0_L1I WRITE        ACCESS:          0 HIT:          0 MISS:          0
cpu0_L1I TRANSLATION  ACCESS:          0 HIT:          0 MISS:          0
cpu0_L1I PREFETCH REQUESTED:          0 ISSUED:          0 USEFUL:          0 USELESS:          0
cpu0_L1I AVERAGE MISS LATENCY: -nan cycles
cpu0_L2C TOTAL        ACCESS:         45 HIT:          0 MISS:         45
cpu0_L2C LOAD         ACCESS:         44 HIT:          0 MISS:         44
cpu0_L2C RFO          ACCESS:          0 HIT:          0 MISS:          0
cpu0_L2C PREFETCH     ACCESS:          0 HIT:          0 MISS:          0
cpu0_L2C WRITE        ACCESS:          0 HIT:          0 MISS:          0
cpu0_L2C TRANSLATION  ACCESS:          1 HIT:          0 MISS:          1
cpu0_L2C PREFETCH REQUESTED:          0 ISSUED:          0 USEFUL:          0 USELESS:          0
cpu0_L2C AVERAGE MISS LATENCY: 117.5 cycles
cpu0_STLB TOTAL        ACCESS:          1 HIT:          0 MISS:          1
cpu0_STLB LOAD         ACCESS:          1 HIT:          0 MISS:          1
cpu0_STLB RFO          ACCESS:          0 HIT:          0 MISS:          0
cpu0_STLB PREFETCH     ACCESS:          0 HIT:          0 MISS:          0
cpu0_STLB WRITE        ACCESS:          0 HIT:          0 MISS:          0
cpu0_STLB TRANSLATION  ACCESS:          0 HIT:          0 MISS:          0
cpu0_STLB PREFETCH REQUESTED:          0 ISSUED:          0 USEFUL:          0 USELESS:          0
cpu0_STLB AVERAGE MISS LATENCY: 404 cycles

DRAM Statistics

Channel 0 RQ ROW_BUFFER_HIT:         30
  ROW_BUFFER_MISS:         15
 AVG DBUS CONGESTED CYCLE: -
WQ ROW_BUFFER_HIT: Channel 0 
  ROW_BUFFER_MISS:          0
  FULL:          0
WARNING: physical memory size is smaller than virtual memory size.

*** ChampSim Multicore Out-of-Order Simulator ***
Warmup Instructions: 200000
Simulation Instructions: 500000
Number of CPUs: 1
Page size: 4096

Off-chip DRAM Size: 4 GiB Channels: 1 Width: 64-bit Data Race: 3200 MT/s
Warmup finished CPU 0 instructions: 200001 cycles: 50049 cumulative IPC: 3.996 (Simulation time: 00 hr 00 min 02 sec)
Warmup complete CPU 0 instructions: 200001 cycles: 50049 cumulative IPC: 3.996 (Simulation time: 00 hr 00 min 02 sec)
Simulation finished CPU 0 instructions: 500003 cycles: 175326 cumulative IPC: 2.852 (Simulation time: 00 hr 00 min 09 sec)
Simulation complete CPU 0 instructions: 500003 cycles: 175326 cumulative IPC: 2.852 (Simulation time: 00 hr 00 min 09 sec)

ChampSim completed all CPUs

=== Simulation ===
CPU 0 runs tracer/444.namd-321B.champsimtrace.xz
Region of Interest Statistics

CPU 0 cumulative IPC: 2.852 instructions: 500003 cycles: 175326
CPU 0 Branch Prediction Accuracy: 92.16% MPKI: 4.32 Average ROB Occupancy at Mispredict: 65.45
Branch type MPKI
BRANCH_DIRECT_JUMP: 0
BRANCH_INDIRECT: 0
BRANCH_CONDITIONAL: 4.32
BRANCH_DIRECT_CALL: 0
BRANCH_INDIRECT_CALL: 0
BRANCH_RETURN: 0

LLC TOTAL        ACCESS:        336 HIT:          0 MISS:        336
LLC LOAD         ACCESS:        326 HIT:          0 MISS:        326
LLC RFO          ACCESS:          0 HIT:          0 MISS:          0
LLC PREFETCH     ACCESS:          0 HIT:          0 MISS:          0
LLC WRITE        ACCESS:          0 HIT:          0 MISS:          0
LLC TRANSLATION  ACCESS:         10 HIT:          0 MISS:         10
LLC PREFETCH REQUESTED:          0 ISSUED:          0 USEFUL:          0 USELESS:          0
LLC AVERAGE MISS LATENCY: 143.3 cycles
cpu0_DTLB TOTAL        ACCESS:      98982 HIT:      98911 MISS:         71
cpu0_DTLB LOAD         ACCESS:      98982 HIT:      98911 MISS:         71
cpu0_DTLB RFO          ACCESS:          0 HIT:          0 MISS:          0
cpu0_DTLB PREFETCH     ACCESS:          0 HIT:          0 MISS:          0
cpu0_DTLB WRITE        ACCESS:          0 HIT:          0 MISS:          0
cpu0_DTLB TRANSLATION  ACCESS:          0 HIT:          0 MISS:          0
cpu0_DTLB PREFETCH REQUESTED:          0 ISSUED:          0 USEFUL:          0 USELESS:          0
cpu0_DTLB AVERAGE MISS LATENCY: 73.07 cycles
cpu0_ITLB TOTAL        ACCESS:         21 HIT:         21 MISS:          0
cpu0_ITLB LOAD         ACCESS:         21 HIT:         21 MISS:          0
cpu0_ITLB RFO          ACCESS:          0 HIT:          0 MISS:          0
cpu0_ITLB PREFETCH     ACCESS:          0 HIT:          0 MISS:          0
cpu0_ITLB WRITE        ACCESS:          0 HIT:          0 MISS:          0
cpu0_ITLB TRANSLATION  ACCESS:          0 HIT:          0 MISS:          0
cpu0_ITLB PREFETCH REQUESTED:          0 ISSUED:          0 USEFUL:          0 USELESS:          0
cpu0_ITLB AVERAGE MISS LATENCY: -nan cycles
cpu0_L1D TOTAL        ACCESS:     133663 HIT:     131802 MISS:       1861
cpu0_L1D LOAD         ACCESS:     108308 HIT:     106610 MISS:       1698
cpu0_L1D RFO          ACCESS:          0 HIT:          0 MISS:          0
cpu0_L1D PREFETCH     ACCESS:          0 HIT:          0 MISS:          0
cpu0_L1D WRITE        ACCESS:      25338 HIT:      25189 MISS:        149
cpu0_L1D TRANSLATION  ACCESS:         17 HIT:          3 MISS:         14
cpu0_L1D PREFETCH REQUESTED:          0 ISSUED:          0 USEFUL:          0 USELESS:          0
cpu0_L1D AVERAGE MISS LATENCY: 31.54 cycles
cpu0_L1I TOTAL        ACCESS:         25 HIT:         25 MISS:          0
cpu0_L1I LOAD         ACCESS:         25 HIT:         25 MISS:          0
cpu0_L1I RFO          ACCESS:          0 HIT:          0 MISS:          0
cpu0_L1I PREFETCH     ACCESS:          0 HIT:          0 MISS:          0
cpu0_L1I WRITE        ACCESS:          0 HIT:          0 MISS:          0
cpu0_L1I TRANSLATION  ACCESS:          0 HIT:          0 MISS:          0
cpu0_L1I PREFETCH REQUESTED:          0 ISSUED:          0 USEFUL:          0 USELESS:          0
cpu0_L1I AVERAGE MISS LATENCY: -nan cycles
cpu0_L2C TOTAL        ACCESS:        931 HIT:        595 MISS:        336
cpu0_L2C LOAD         ACCESS:        757 HIT:        431 MISS:        326
cpu0_L2C RFO          ACCESS:         38 HIT:         38 MISS:          0
cpu0_L2C PREFETCH     ACCESS:          0 HIT:          0 MISS:          0
cpu0_L2C WRITE        ACCESS:        122 HIT:        122 MISS:          0
cpu0_L2C TRANSLATION  ACCESS:         14 HIT:          4 MISS:         10
cpu0_L2C PREFETCH REQUESTED:          0 ISSUED:          0 USEFUL:          0 USELESS:          0
cpu0_L2C AVERAGE MISS LATENCY: 164.3 cycles
cpu0_STLB TOTAL        ACCESS:         34 HIT:         17 MISS:         17
cpu0_STLB LOAD         ACCESS:         34 HIT:         17 MISS:         17
cpu0_STLB RFO          ACCESS:          0 HIT:          0 MISS:          0
cpu0_STLB PREFETCH     ACCESS:          0 HIT:          0 MISS:          0
cpu0_STLB WRITE        ACCESS:          0 HIT:          0 MISS:          0
cpu0_STLB TRANSLATION  ACCESS:          0 HIT:          0 MISS:          0
cpu0_STLB PREFETCH REQUESTED:          0 ISSUED:          0 USEFUL:          0 USELESS:          0
cpu0_STLB AVERAGE MISS LATENCY: 341.9 cycles

DRAM Statistics

Channel 0 RQ ROW_BUFFER_HIT:        125
  ROW_BUFFER_MISS:        211
 AVG DBUS CONGESTED CYCLE: 3.898
WQ ROW_BUFFER_HIT: Channel 0 
  ROW_BUFFER_MISS:          0
  FULL:          0
WARNING: physical memory size is smaller than virtual memory size.

*** ChampSim Multicore Out-of-Order Simulator ***
Warmup Instructions: 200000
Simulation Instructions: 500000
Number of CPUs: 1
Page size: 4096

Off-chip DRAM Size: 4 GiB Channels: 1 Width: 64-bit Data Race: 3200 MT/s
Warmup finished CPU 0 instructions: 200000 cycles: 50054 cumulative IPC: 3.996 (Simulation time: 00 hr 00 min 02 sec)
Warmup complete CPU 0 instructions: 200000 cycles: 50054 cumulative IPC: 3.996 (Simulation time: 00 hr 00 min 02 sec)
Simulation finished CPU 0 instructions: 500000 cycles: 377372 cumulative IPC: 1.325 (Simulation time: 00 hr 00 min 10 sec)
Simulation complete CPU 0 instructions: 500000 cycles: 377372 cumulative IPC: 1.325 (Simulation time: 00 hr 00 min 10 sec)

ChampSim completed all CPUs

=== Simulation ===
CPU 0 runs tracer/458.sjeng-1088B.champsimtrace.xz
Region of Interest Statistics

CPU 0 cumulative IPC: 1.325 instructions: 500000 cycles: 377372
CPU 0 Branch Prediction Accuracy: 90.17% MPKI: 21.79 Average ROB Occupancy at Mispredict: 19.78
Branch type MPKI
BRANCH_DIRECT_JUMP: 0.014
BRANCH_INDIRECT: 1.28
BRANCH_CONDITIONAL: 20
BRANCH_DIRECT_CALL: 0.006
BRANCH_INDIRECT_CALL: 0.364
BRANCH_RETURN: 0.118

LLC TOTAL        ACCESS:        494 HIT:          0 MISS:        494
LLC LOAD         ACCESS:        240 HIT:          0 MISS:        240
LLC RFO          ACCESS:         79 HIT:          0 MISS:         79
LLC PREFETCH     ACCESS:          0 HIT:          0 MISS:          0
LLC WRITE        ACCESS:          0 HIT:          0 MISS:          0
LLC TRANSLATION  ACCESS:        175 HIT:          0 MISS:        175
LLC PREFETCH REQUESTED:          0 ISSUED:          0 USEFUL:          0 USELESS:          0
LLC AVERAGE MISS LATENCY: 158.6 cycles
cpu0_DTLB TOTAL        ACCESS:     114891 HIT:     113504 MISS:       1387
cpu0_DTLB LOAD         ACCESS:     114891 HIT:     113504 MISS:       1387
cpu0_DTLB RFO          ACCESS:          0 HIT:          0 MISS:          0
cpu0_DTLB PREFETCH     ACCESS:          0 HIT:          0 MISS:          0
cpu0_DTLB WRITE        ACCESS:          0 HIT:          0 MISS:          0
cpu0_DTLB TRANSLATION  ACCESS:          0 HIT:          0 MISS:          0
cpu0_DTLB PREFETCH REQUESTED:          0 ISSUED:          0 USEFUL:          0 USELESS:          0
cpu0_DTLB AVERAGE MISS LATENCY: 61.22 cycles
cpu0_ITLB TOTAL        ACCESS:      23274 HIT:      23274 MISS:          0
cpu0_ITLB LOAD         ACCESS:      23274 HIT:      23274 MISS:          0
cpu0_ITLB RFO          ACCESS:          0 HIT:          0 MISS:          0
cpu0_ITLB PREFETCH     ACCESS:          0 HIT:          0 MISS:          0
cpu0_ITLB WRITE        ACCESS:          0 HIT:          0 MISS:          0
cpu0_ITLB TRANSLATION  ACCESS:          0 HIT:          0 MISS:          0
cpu0_ITLB PREFETCH REQUESTED:          0 ISSUED:          0 USEFUL:          0 USELESS:          0
cpu0_ITLB AVERAGE MISS LATENCY: -nan cycles
cpu0_L1D TOTAL        ACCESS:     145313 HIT:     144433 MISS:        880
cpu0_L1D LOAD         ACCESS:     104852 HIT:     104563 MISS:        289
cpu0_L1D RFO          ACCESS:          0 HIT:          0 MISS:          0
cpu0_L1D PREFETCH     ACCESS:          0 HIT:          0 MISS:          0
cpu0_L1D WRITE        ACCESS:      40259 HIT:      39849 MISS:        410
cpu0_L1D TRANSLATION  ACCESS:        202 HIT:         21 MISS:        181
cpu0_L1D PREFETCH REQUESTED:          0 ISSUED:          0 USEFUL:          0 USELESS:          0
cpu0_L1D AVERAGE MISS LATENCY: 103.7 cycles
cpu0_L1I TOTAL        ACCESS:      27281 HIT:      27274 MISS:          7
cpu0_L1I LOAD         ACCESS:      27281 HIT:      27274 MISS:          7
cpu0_L1I RFO          ACCESS:          0 HIT:          0 MISS:          0
cpu0_L1I PREFETCH     ACCESS:          0 HIT:          0 MISS:          0
cpu0_L1I WRITE        ACCESS:          0 HIT:          0 MISS:          0
cpu0_L1I TRANSLATION  ACCESS:          0 HIT:          0 MISS:          0
cpu0_L1I PREFETCH REQUESTED:          0 ISSUED:          0 USEFUL:          0 USELESS:          0
cpu0_L1I AVERAGE MISS LATENCY: 171 cycles
cpu0_L2C TOTAL        ACCESS:        640 HIT:        146 MISS:        494
cpu0_L2C LOAD         ACCESS:        252 HIT:         12 MISS:        240
cpu0_L2C RFO          ACCESS:         99 HIT:         20 MISS:         79
cpu0_L2C PREFETCH     ACCESS:          0 HIT:          0 MISS:          0
cpu0_L2C WRITE        ACCESS:        108 HIT:        108 MISS:          0
cpu0_L2C TRANSLATION  ACCESS:        181 HIT:          6 MISS:        175
cpu0_L2C PREFETCH REQUESTED:          0 ISSUED:          0 USEFUL:          0 USELESS:          0
cpu0_L2C AVERAGE MISS LATENCY: 179.6 cycles
cpu0_STLB TOTAL        ACCESS:       1077 HIT:        882 MISS:        195
cpu0_STLB LOAD         ACCESS:       1077 HIT:        882 MISS:        195
cpu0_STLB RFO          ACCESS:          0 HIT:          0 MISS:          0
cpu0_STLB PREFETCH     ACCESS:          0 HIT:          0 MISS:          0
cpu0_STLB WRITE        ACCESS:          0 HIT:          0 MISS:          0
cpu0_STLB TRANSLATION  ACCESS:          0 HIT:          0 MISS:          0
cpu0_STLB PREFETCH REQUESTED:          0 ISSUED:          0 USEFUL:          0 USELESS:          0
cpu0_STLB AVERAGE MISS LATENCY: 401.4 cycles

DRAM Statistics

Channel 0 RQ ROW_BUFFER_HIT:         70
  ROW_BUFFER_MISS:        424
 AVG DBUS CONGESTED CYCLE: 3.774
WQ ROW_BUFFER_HIT: Channel 0 
  ROW_BUFFER_MISS:          0
  FULL:          0
